db44_passthrough
*SPICE Netlist generated by Advanced Sim server on 3/16/2021 12:58:29 PM
.options MixedSimGenerated

*Schematic Netlist:

.SAVE allV
.SAVE allI
.SAVE allP


*Selected Circuit Analyses:
.TRAN  20.00n  5.000u 0  20.00n
.OP

.END
